<?xml version="1.0" encoding="UTF-8"?>

<!-- generated on 2025-04-27 08:12:37 by Eclipse SUMO duarouter Version 1.22.0
<duarouterConfiguration xmlns:xsi="http://www.w3.org/2001/XMLSchema-instance" xsi:noNamespaceSchemaLocation="http://sumo.dlr.de/xsd/duarouterConfiguration.xsd">

    <input>
        <net-file value="SUMO_bus_lanes.net.xml"/>
        <route-files value="low_flow.xml"/>
    </input>

    <output>
        <output-file value="low_demand.rou.xml"/>
    </output>

</duarouterConfiguration>
-->

<routes xmlns:xsi="http://www.w3.org/2001/XMLSchema-instance" xsi:noNamespaceSchemaLocation="http://sumo.dlr.de/xsd/routes_file.xsd">
    <vType id="bus" length="12.00" maxSpeed="11.10" vClass="bus" accel="1.3" decel="4.0"/>
    <vehicle id="cross1BusFlowLow.0" type="bus" depart="0.00">
        <route edges="-E11 E12"/>
    </vehicle>
    <vehicle id="cross1BusFlowLowAlt.0" type="bus" depart="0.00">
        <route edges="-E12 E11"/>
    </vehicle>
    <vType id="car" length="5.00" maxSpeed="13.90" vClass="passenger" accel="2.6" decel="4.5"/>
    <vehicle id="cross1CarFlowLow.0" type="car" depart="0.00">
        <route edges="-E11 E12"/>
    </vehicle>
    <vehicle id="cross1CarFlowLowAlt.0" type="car" depart="0.00">
        <route edges="-E12 E11"/>
    </vehicle>
    <vehicle id="cross2BusFlowLow.0" type="bus" depart="0.00">
        <route edges="-E24 E25"/>
    </vehicle>
    <vehicle id="cross2BusFlowLowAlt.0" type="bus" depart="0.00">
        <route edges="-E25 E24"/>
    </vehicle>
    <vehicle id="cross2CarFlowLow.0" type="car" depart="0.00">
        <route edges="-E24 E25"/>
    </vehicle>
    <vehicle id="cross2CarFlowLowAlt.0" type="car" depart="0.00">
        <route edges="-E25 E24"/>
    </vehicle>
    <vehicle id="cross3BusFlowLow.0" type="bus" depart="0.00">
        <route edges="-E22 E23"/>
    </vehicle>
    <vehicle id="cross3BusFlowLowAlt.0" type="bus" depart="0.00">
        <route edges="-E23 E22"/>
    </vehicle>
    <vehicle id="cross3CarFlowLow.0" type="car" depart="0.00">
        <route edges="-E22 E23"/>
    </vehicle>
    <vehicle id="cross3CarFlowLowAlt.0" type="car" depart="0.00">
        <route edges="-E23 E22"/>
    </vehicle>
    <vehicle id="leftTurn1BusFlowLow.0" type="bus" depart="0.00">
        <route edges="E10 E11"/>
    </vehicle>
    <vehicle id="leftTurn1BusFlowLowAlt.0" type="bus" depart="0.00">
        <route edges="-E11 -E10"/>
    </vehicle>
    <vehicle id="leftTurn1CarFlowLow.0" type="car" depart="0.00">
        <route edges="E10 E11"/>
    </vehicle>
    <vehicle id="leftTurn1CarFlowLowAlt.0" type="car" depart="0.00">
        <route edges="-E11 -E10"/>
    </vehicle>
    <vehicle id="leftTurn2BusFlowLow.0" type="bus" depart="0.00">
        <route edges="E10 E13 E24"/>
    </vehicle>
    <vehicle id="leftTurn2BusFlowLowAlt.0" type="bus" depart="0.00">
        <route edges="-E24 -E13 -E10"/>
    </vehicle>
    <vehicle id="leftTurn2CarFlowLow.0" type="car" depart="0.00">
        <route edges="E10 E13 E24"/>
    </vehicle>
    <vehicle id="leftTurn2CarFlowLowAlt.0" type="car" depart="0.00">
        <route edges="-E24 -E13 -E10"/>
    </vehicle>
    <vehicle id="leftTurn3BusFlowLow.0" type="bus" depart="0.00">
        <route edges="E10 E13 E14 E23"/>
    </vehicle>
    <vehicle id="leftTurn3BusFlowLowAlt.0" type="bus" depart="0.00">
        <route edges="-E23 -E14 -E13 -E10"/>
    </vehicle>
    <vehicle id="leftTurn3CarFlowLow.0" type="car" depart="0.00">
        <route edges="E10 E13 E14 E23"/>
    </vehicle>
    <vehicle id="leftTurn3CarFlowLowAlt.0" type="car" depart="0.00">
        <route edges="-E23 -E14 -E13 -E10"/>
    </vehicle>
    <vehicle id="leftTurn4BusFlowLow.0" type="bus" depart="0.00">
        <route edges="-E15 -E14 -E13 E12"/>
    </vehicle>
    <vehicle id="leftTurn4BusFlowLowAlt.0" type="bus" depart="0.00">
        <route edges="-E12 E13 E14 E15"/>
    </vehicle>
    <vehicle id="leftTurn4CarFlowLow.0" type="car" depart="0.00">
        <route edges="-E15 -E14 -E13 E12"/>
    </vehicle>
    <vehicle id="leftTurn4CarFlowLowAlt.0" type="car" depart="0.00">
        <route edges="-E12 E13 E14 E15"/>
    </vehicle>
    <vehicle id="leftTurn5BusFlowLow.0" type="bus" depart="0.00">
        <route edges="-E15 -E14 E25"/>
    </vehicle>
    <vehicle id="leftTurn5BusFlowLowAlt.0" type="bus" depart="0.00">
        <route edges="-E25 E14 E15"/>
    </vehicle>
    <vehicle id="leftTurn5CarFlowLow.0" type="car" depart="0.00">
        <route edges="-E15 -E14 E25"/>
    </vehicle>
    <vehicle id="leftTurn5CarFlowLowAlt.0" type="car" depart="0.00">
        <route edges="-E25 E14 E15"/>
    </vehicle>
    <vehicle id="leftTurn6BusFlowLow.0" type="bus" depart="0.00">
        <route edges="-E15 E22"/>
    </vehicle>
    <vehicle id="leftTurn6BusFlowLowAlt.0" type="bus" depart="0.00">
        <route edges="-E22 E15"/>
    </vehicle>
    <vehicle id="leftTurn6CarFlowLow.0" type="car" depart="0.00">
        <route edges="-E15 E22"/>
    </vehicle>
    <vehicle id="leftTurn6CarFlowLowAlt.0" type="car" depart="0.00">
        <route edges="-E22 E15"/>
    </vehicle>
    <vehicle id="mainBusFlowLow.0" type="bus" depart="0.00">
        <route edges="E10 E13 E14 E15"/>
    </vehicle>
    <vehicle id="mainBusFlowLowAlt.0" type="bus" depart="0.00">
        <route edges="-E15 -E14 -E13 -E10"/>
    </vehicle>
    <vehicle id="mainCarFlowLow.0" type="car" depart="0.00">
        <route edges="E10 E13 E14 E15"/>
    </vehicle>
    <vehicle id="mainCarFlowLowAlt.0" type="car" depart="0.00">
        <route edges="-E15 -E14 -E13 -E10"/>
    </vehicle>
    <vehicle id="rightTurn1BusFlowLow.0" type="bus" depart="0.00">
        <route edges="E10 E12"/>
    </vehicle>
    <vehicle id="rightTurn1BusFlowLowAlt.0" type="bus" depart="0.00">
        <route edges="-E12 -E10"/>
    </vehicle>
    <vehicle id="rightTurn1CarFlowLow.0" type="car" depart="0.00">
        <route edges="E10 E12"/>
    </vehicle>
    <vehicle id="rightTurn1CarFlowLowAlt.0" type="car" depart="0.00">
        <route edges="-E12 -E10"/>
    </vehicle>
    <vehicle id="rightTurn2BusFlowLow.0" type="bus" depart="0.00">
        <route edges="E10 E13 E25"/>
    </vehicle>
    <vehicle id="rightTurn2BusFlowLowAlt.0" type="bus" depart="0.00">
        <route edges="-E25 -E13 -E10"/>
    </vehicle>
    <vehicle id="rightTurn2CarFlowLow.0" type="car" depart="0.00">
        <route edges="E10 E13 E25"/>
    </vehicle>
    <vehicle id="rightTurn2CarFlowLowAlt.0" type="car" depart="0.00">
        <route edges="-E25 -E13 -E10"/>
    </vehicle>
    <vehicle id="rightTurn3BusFlowLow.0" type="bus" depart="0.00">
        <route edges="E10 E13 E14 E22"/>
    </vehicle>
    <vehicle id="rightTurn3BusFlowLowAlt.0" type="bus" depart="0.00">
        <route edges="-E22 -E14 -E13 -E10"/>
    </vehicle>
    <vehicle id="rightTurn3CarFlowLow.0" type="car" depart="0.00">
        <route edges="E10 E13 E14 E22"/>
    </vehicle>
    <vehicle id="rightTurn3CarFlowLowAlt.0" type="car" depart="0.00">
        <route edges="-E22 -E14 -E13 -E10"/>
    </vehicle>
    <vehicle id="rightTurn4BusFlowLow.0" type="bus" depart="0.00">
        <route edges="-E15 E23"/>
    </vehicle>
    <vehicle id="rightTurn4BusFlowLowAlt.0" type="bus" depart="0.00">
        <route edges="-E23 E15"/>
    </vehicle>
    <vehicle id="rightTurn4CarFlowLow.0" type="car" depart="0.00">
        <route edges="-E15 E23"/>
    </vehicle>
    <vehicle id="rightTurn4CarFlowLowAlt.0" type="car" depart="0.00">
        <route edges="-E23 E15"/>
    </vehicle>
    <vehicle id="rightTurn5BusFlowLow.0" type="bus" depart="0.00">
        <route edges="-E15 -E14 E24"/>
    </vehicle>
    <vehicle id="rightTurn5BusFlowLowAlt.0" type="bus" depart="0.00">
        <route edges="-E24 E14 E15"/>
    </vehicle>
    <vehicle id="rightTurn5CarFlowLow.0" type="car" depart="0.00">
        <route edges="-E15 -E14 E24"/>
    </vehicle>
    <vehicle id="rightTurn5CarFlowLowAlt.0" type="car" depart="0.00">
        <route edges="-E24 E14 E15"/>
    </vehicle>
    <vehicle id="rightTurn6BusFlowLow.0" type="bus" depart="0.00">
        <route edges="-E15 -E14 -E13 E11"/>
    </vehicle>
    <vehicle id="rightTurn6BusFlowLowAlt.0" type="bus" depart="0.00">
        <route edges="-E11 E13 E14 E15"/>
    </vehicle>
    <vehicle id="rightTurn6CarFlowLow.0" type="car" depart="0.00">
        <route edges="-E15 -E14 -E13 E11"/>
    </vehicle>
    <vehicle id="rightTurn6CarFlowLowAlt.0" type="car" depart="0.00">
        <route edges="-E11 E13 E14 E15"/>
    </vehicle>
    <vehicle id="mainCarFlowLow.1" type="car" depart="18.00">
        <route edges="E10 E13 E14 E15"/>
    </vehicle>
    <vehicle id="mainCarFlowLowAlt.1" type="car" depart="18.00">
        <route edges="-E15 -E14 -E13 -E10"/>
    </vehicle>
    <vehicle id="mainCarFlowLow.2" type="car" depart="36.00">
        <route edges="E10 E13 E14 E15"/>
    </vehicle>
    <vehicle id="mainCarFlowLowAlt.2" type="car" depart="36.00">
        <route edges="-E15 -E14 -E13 -E10"/>
    </vehicle>
    <vehicle id="mainCarFlowLow.3" type="car" depart="54.00">
        <route edges="E10 E13 E14 E15"/>
    </vehicle>
    <vehicle id="mainCarFlowLowAlt.3" type="car" depart="54.00">
        <route edges="-E15 -E14 -E13 -E10"/>
    </vehicle>
    <vehicle id="cross1CarFlowLow.1" type="car" depart="72.00">
        <route edges="-E11 E12"/>
    </vehicle>
    <vehicle id="cross1CarFlowLowAlt.1" type="car" depart="72.00">
        <route edges="-E12 E11"/>
    </vehicle>
    <vehicle id="cross2CarFlowLow.1" type="car" depart="72.00">
        <route edges="-E24 E25"/>
    </vehicle>
    <vehicle id="cross2CarFlowLowAlt.1" type="car" depart="72.00">
        <route edges="-E25 E24"/>
    </vehicle>
    <vehicle id="cross3CarFlowLow.1" type="car" depart="72.00">
        <route edges="-E22 E23"/>
    </vehicle>
    <vehicle id="cross3CarFlowLowAlt.1" type="car" depart="72.00">
        <route edges="-E23 E22"/>
    </vehicle>
    <vehicle id="mainCarFlowLow.4" type="car" depart="72.00">
        <route edges="E10 E13 E14 E15"/>
    </vehicle>
    <vehicle id="mainCarFlowLowAlt.4" type="car" depart="72.00">
        <route edges="-E15 -E14 -E13 -E10"/>
    </vehicle>
    <vehicle id="mainCarFlowLow.5" type="car" depart="90.00">
        <route edges="E10 E13 E14 E15"/>
    </vehicle>
    <vehicle id="mainCarFlowLowAlt.5" type="car" depart="90.00">
        <route edges="-E15 -E14 -E13 -E10"/>
    </vehicle>
    <vehicle id="mainCarFlowLow.6" type="car" depart="108.00">
        <route edges="E10 E13 E14 E15"/>
    </vehicle>
    <vehicle id="mainCarFlowLowAlt.6" type="car" depart="108.00">
        <route edges="-E15 -E14 -E13 -E10"/>
    </vehicle>
    <vehicle id="mainCarFlowLow.7" type="car" depart="126.00">
        <route edges="E10 E13 E14 E15"/>
    </vehicle>
    <vehicle id="mainCarFlowLowAlt.7" type="car" depart="126.00">
        <route edges="-E15 -E14 -E13 -E10"/>
    </vehicle>
    <vehicle id="cross1CarFlowLow.2" type="car" depart="144.00">
        <route edges="-E11 E12"/>
    </vehicle>
    <vehicle id="cross1CarFlowLowAlt.2" type="car" depart="144.00">
        <route edges="-E12 E11"/>
    </vehicle>
    <vehicle id="cross2CarFlowLow.2" type="car" depart="144.00">
        <route edges="-E24 E25"/>
    </vehicle>
    <vehicle id="cross2CarFlowLowAlt.2" type="car" depart="144.00">
        <route edges="-E25 E24"/>
    </vehicle>
    <vehicle id="cross3CarFlowLow.2" type="car" depart="144.00">
        <route edges="-E22 E23"/>
    </vehicle>
    <vehicle id="cross3CarFlowLowAlt.2" type="car" depart="144.00">
        <route edges="-E23 E22"/>
    </vehicle>
    <vehicle id="mainCarFlowLow.8" type="car" depart="144.00">
        <route edges="E10 E13 E14 E15"/>
    </vehicle>
    <vehicle id="mainCarFlowLowAlt.8" type="car" depart="144.00">
        <route edges="-E15 -E14 -E13 -E10"/>
    </vehicle>
    <vehicle id="mainCarFlowLow.9" type="car" depart="162.00">
        <route edges="E10 E13 E14 E15"/>
    </vehicle>
    <vehicle id="mainCarFlowLowAlt.9" type="car" depart="162.00">
        <route edges="-E15 -E14 -E13 -E10"/>
    </vehicle>
    <vehicle id="mainBusFlowLow.1" type="bus" depart="180.00">
        <route edges="E10 E13 E14 E15"/>
    </vehicle>
    <vehicle id="mainBusFlowLowAlt.1" type="bus" depart="180.00">
        <route edges="-E15 -E14 -E13 -E10"/>
    </vehicle>
    <vehicle id="mainCarFlowLow.10" type="car" depart="180.00">
        <route edges="E10 E13 E14 E15"/>
    </vehicle>
    <vehicle id="mainCarFlowLowAlt.10" type="car" depart="180.00">
        <route edges="-E15 -E14 -E13 -E10"/>
    </vehicle>
    <vehicle id="mainCarFlowLow.11" type="car" depart="198.00">
        <route edges="E10 E13 E14 E15"/>
    </vehicle>
    <vehicle id="mainCarFlowLowAlt.11" type="car" depart="198.00">
        <route edges="-E15 -E14 -E13 -E10"/>
    </vehicle>
    <vehicle id="cross1CarFlowLow.3" type="car" depart="216.00">
        <route edges="-E11 E12"/>
    </vehicle>
    <vehicle id="cross1CarFlowLowAlt.3" type="car" depart="216.00">
        <route edges="-E12 E11"/>
    </vehicle>
    <vehicle id="cross2CarFlowLow.3" type="car" depart="216.00">
        <route edges="-E24 E25"/>
    </vehicle>
    <vehicle id="cross2CarFlowLowAlt.3" type="car" depart="216.00">
        <route edges="-E25 E24"/>
    </vehicle>
    <vehicle id="cross3CarFlowLow.3" type="car" depart="216.00">
        <route edges="-E22 E23"/>
    </vehicle>
    <vehicle id="cross3CarFlowLowAlt.3" type="car" depart="216.00">
        <route edges="-E23 E22"/>
    </vehicle>
    <vehicle id="mainCarFlowLow.12" type="car" depart="216.00">
        <route edges="E10 E13 E14 E15"/>
    </vehicle>
    <vehicle id="mainCarFlowLowAlt.12" type="car" depart="216.00">
        <route edges="-E15 -E14 -E13 -E10"/>
    </vehicle>
    <vehicle id="mainCarFlowLow.13" type="car" depart="234.00">
        <route edges="E10 E13 E14 E15"/>
    </vehicle>
    <vehicle id="mainCarFlowLowAlt.13" type="car" depart="234.00">
        <route edges="-E15 -E14 -E13 -E10"/>
    </vehicle>
    <vehicle id="mainCarFlowLow.14" type="car" depart="252.00">
        <route edges="E10 E13 E14 E15"/>
    </vehicle>
    <vehicle id="mainCarFlowLowAlt.14" type="car" depart="252.00">
        <route edges="-E15 -E14 -E13 -E10"/>
    </vehicle>
    <vehicle id="mainCarFlowLow.15" type="car" depart="270.00">
        <route edges="E10 E13 E14 E15"/>
    </vehicle>
    <vehicle id="mainCarFlowLowAlt.15" type="car" depart="270.00">
        <route edges="-E15 -E14 -E13 -E10"/>
    </vehicle>
    <vehicle id="cross1CarFlowLow.4" type="car" depart="288.00">
        <route edges="-E11 E12"/>
    </vehicle>
    <vehicle id="cross1CarFlowLowAlt.4" type="car" depart="288.00">
        <route edges="-E12 E11"/>
    </vehicle>
    <vehicle id="cross2CarFlowLow.4" type="car" depart="288.00">
        <route edges="-E24 E25"/>
    </vehicle>
    <vehicle id="cross2CarFlowLowAlt.4" type="car" depart="288.00">
        <route edges="-E25 E24"/>
    </vehicle>
    <vehicle id="cross3CarFlowLow.4" type="car" depart="288.00">
        <route edges="-E22 E23"/>
    </vehicle>
    <vehicle id="cross3CarFlowLowAlt.4" type="car" depart="288.00">
        <route edges="-E23 E22"/>
    </vehicle>
    <vehicle id="mainCarFlowLow.16" type="car" depart="288.00">
        <route edges="E10 E13 E14 E15"/>
    </vehicle>
    <vehicle id="mainCarFlowLowAlt.16" type="car" depart="288.00">
        <route edges="-E15 -E14 -E13 -E10"/>
    </vehicle>
    <vehicle id="mainCarFlowLow.17" type="car" depart="306.00">
        <route edges="E10 E13 E14 E15"/>
    </vehicle>
    <vehicle id="mainCarFlowLowAlt.17" type="car" depart="306.00">
        <route edges="-E15 -E14 -E13 -E10"/>
    </vehicle>
    <vehicle id="mainCarFlowLow.18" type="car" depart="324.00">
        <route edges="E10 E13 E14 E15"/>
    </vehicle>
    <vehicle id="mainCarFlowLowAlt.18" type="car" depart="324.00">
        <route edges="-E15 -E14 -E13 -E10"/>
    </vehicle>
    <vehicle id="mainCarFlowLow.19" type="car" depart="342.00">
        <route edges="E10 E13 E14 E15"/>
    </vehicle>
    <vehicle id="mainCarFlowLowAlt.19" type="car" depart="342.00">
        <route edges="-E15 -E14 -E13 -E10"/>
    </vehicle>
    <vehicle id="cross1CarFlowLow.5" type="car" depart="360.00">
        <route edges="-E11 E12"/>
    </vehicle>
    <vehicle id="cross1CarFlowLowAlt.5" type="car" depart="360.00">
        <route edges="-E12 E11"/>
    </vehicle>
    <vehicle id="cross2CarFlowLow.5" type="car" depart="360.00">
        <route edges="-E24 E25"/>
    </vehicle>
    <vehicle id="cross2CarFlowLowAlt.5" type="car" depart="360.00">
        <route edges="-E25 E24"/>
    </vehicle>
    <vehicle id="cross3CarFlowLow.5" type="car" depart="360.00">
        <route edges="-E22 E23"/>
    </vehicle>
    <vehicle id="cross3CarFlowLowAlt.5" type="car" depart="360.00">
        <route edges="-E23 E22"/>
    </vehicle>
    <vehicle id="leftTurn1CarFlowLow.1" type="car" depart="360.00">
        <route edges="E10 E11"/>
    </vehicle>
    <vehicle id="leftTurn1CarFlowLowAlt.1" type="car" depart="360.00">
        <route edges="-E11 -E10"/>
    </vehicle>
    <vehicle id="leftTurn2CarFlowLow.1" type="car" depart="360.00">
        <route edges="E10 E13 E24"/>
    </vehicle>
    <vehicle id="leftTurn2CarFlowLowAlt.1" type="car" depart="360.00">
        <route edges="-E24 -E13 -E10"/>
    </vehicle>
    <vehicle id="leftTurn3CarFlowLow.1" type="car" depart="360.00">
        <route edges="E10 E13 E14 E23"/>
    </vehicle>
    <vehicle id="leftTurn3CarFlowLowAlt.1" type="car" depart="360.00">
        <route edges="-E23 -E14 -E13 -E10"/>
    </vehicle>
    <vehicle id="leftTurn4CarFlowLow.1" type="car" depart="360.00">
        <route edges="-E15 -E14 -E13 E12"/>
    </vehicle>
    <vehicle id="leftTurn4CarFlowLowAlt.1" type="car" depart="360.00">
        <route edges="-E12 E13 E14 E15"/>
    </vehicle>
    <vehicle id="leftTurn5CarFlowLow.1" type="car" depart="360.00">
        <route edges="-E15 -E14 E25"/>
    </vehicle>
    <vehicle id="leftTurn5CarFlowLowAlt.1" type="car" depart="360.00">
        <route edges="-E25 E14 E15"/>
    </vehicle>
    <vehicle id="leftTurn6CarFlowLow.1" type="car" depart="360.00">
        <route edges="-E15 E22"/>
    </vehicle>
    <vehicle id="leftTurn6CarFlowLowAlt.1" type="car" depart="360.00">
        <route edges="-E22 E15"/>
    </vehicle>
    <vehicle id="mainBusFlowLow.2" type="bus" depart="360.00">
        <route edges="E10 E13 E14 E15"/>
    </vehicle>
    <vehicle id="mainBusFlowLowAlt.2" type="bus" depart="360.00">
        <route edges="-E15 -E14 -E13 -E10"/>
    </vehicle>
    <vehicle id="mainCarFlowLow.20" type="car" depart="360.00">
        <route edges="E10 E13 E14 E15"/>
    </vehicle>
    <vehicle id="mainCarFlowLowAlt.20" type="car" depart="360.00">
        <route edges="-E15 -E14 -E13 -E10"/>
    </vehicle>
    <vehicle id="rightTurn1CarFlowLow.1" type="car" depart="360.00">
        <route edges="E10 E12"/>
    </vehicle>
    <vehicle id="rightTurn1CarFlowLowAlt.1" type="car" depart="360.00">
        <route edges="-E12 -E10"/>
    </vehicle>
    <vehicle id="rightTurn2CarFlowLow.1" type="car" depart="360.00">
        <route edges="E10 E13 E25"/>
    </vehicle>
    <vehicle id="rightTurn2CarFlowLowAlt.1" type="car" depart="360.00">
        <route edges="-E25 -E13 -E10"/>
    </vehicle>
    <vehicle id="rightTurn3CarFlowLow.1" type="car" depart="360.00">
        <route edges="E10 E13 E14 E22"/>
    </vehicle>
    <vehicle id="rightTurn3CarFlowLowAlt.1" type="car" depart="360.00">
        <route edges="-E22 -E14 -E13 -E10"/>
    </vehicle>
    <vehicle id="rightTurn4CarFlowLow.1" type="car" depart="360.00">
        <route edges="-E15 E23"/>
    </vehicle>
    <vehicle id="rightTurn4CarFlowLowAlt.1" type="car" depart="360.00">
        <route edges="-E23 E15"/>
    </vehicle>
    <vehicle id="rightTurn5CarFlowLow.1" type="car" depart="360.00">
        <route edges="-E15 -E14 E24"/>
    </vehicle>
    <vehicle id="rightTurn5CarFlowLowAlt.1" type="car" depart="360.00">
        <route edges="-E24 E14 E15"/>
    </vehicle>
    <vehicle id="rightTurn6CarFlowLow.1" type="car" depart="360.00">
        <route edges="-E15 -E14 -E13 E11"/>
    </vehicle>
    <vehicle id="rightTurn6CarFlowLowAlt.1" type="car" depart="360.00">
        <route edges="-E11 E13 E14 E15"/>
    </vehicle>
    <vehicle id="mainCarFlowLow.21" type="car" depart="378.00">
        <route edges="E10 E13 E14 E15"/>
    </vehicle>
    <vehicle id="mainCarFlowLowAlt.21" type="car" depart="378.00">
        <route edges="-E15 -E14 -E13 -E10"/>
    </vehicle>
    <vehicle id="mainCarFlowLow.22" type="car" depart="396.00">
        <route edges="E10 E13 E14 E15"/>
    </vehicle>
    <vehicle id="mainCarFlowLowAlt.22" type="car" depart="396.00">
        <route edges="-E15 -E14 -E13 -E10"/>
    </vehicle>
    <vehicle id="mainCarFlowLow.23" type="car" depart="414.00">
        <route edges="E10 E13 E14 E15"/>
    </vehicle>
    <vehicle id="mainCarFlowLowAlt.23" type="car" depart="414.00">
        <route edges="-E15 -E14 -E13 -E10"/>
    </vehicle>
    <vehicle id="cross1CarFlowLow.6" type="car" depart="432.00">
        <route edges="-E11 E12"/>
    </vehicle>
    <vehicle id="cross1CarFlowLowAlt.6" type="car" depart="432.00">
        <route edges="-E12 E11"/>
    </vehicle>
    <vehicle id="cross2CarFlowLow.6" type="car" depart="432.00">
        <route edges="-E24 E25"/>
    </vehicle>
    <vehicle id="cross2CarFlowLowAlt.6" type="car" depart="432.00">
        <route edges="-E25 E24"/>
    </vehicle>
    <vehicle id="cross3CarFlowLow.6" type="car" depart="432.00">
        <route edges="-E22 E23"/>
    </vehicle>
    <vehicle id="cross3CarFlowLowAlt.6" type="car" depart="432.00">
        <route edges="-E23 E22"/>
    </vehicle>
    <vehicle id="mainCarFlowLow.24" type="car" depart="432.00">
        <route edges="E10 E13 E14 E15"/>
    </vehicle>
    <vehicle id="mainCarFlowLowAlt.24" type="car" depart="432.00">
        <route edges="-E15 -E14 -E13 -E10"/>
    </vehicle>
    <vehicle id="mainCarFlowLow.25" type="car" depart="450.00">
        <route edges="E10 E13 E14 E15"/>
    </vehicle>
    <vehicle id="mainCarFlowLowAlt.25" type="car" depart="450.00">
        <route edges="-E15 -E14 -E13 -E10"/>
    </vehicle>
    <vehicle id="mainCarFlowLow.26" type="car" depart="468.00">
        <route edges="E10 E13 E14 E15"/>
    </vehicle>
    <vehicle id="mainCarFlowLowAlt.26" type="car" depart="468.00">
        <route edges="-E15 -E14 -E13 -E10"/>
    </vehicle>
    <vehicle id="mainCarFlowLow.27" type="car" depart="486.00">
        <route edges="E10 E13 E14 E15"/>
    </vehicle>
    <vehicle id="mainCarFlowLowAlt.27" type="car" depart="486.00">
        <route edges="-E15 -E14 -E13 -E10"/>
    </vehicle>
    <vehicle id="cross1CarFlowLow.7" type="car" depart="504.00">
        <route edges="-E11 E12"/>
    </vehicle>
    <vehicle id="cross1CarFlowLowAlt.7" type="car" depart="504.00">
        <route edges="-E12 E11"/>
    </vehicle>
    <vehicle id="cross2CarFlowLow.7" type="car" depart="504.00">
        <route edges="-E24 E25"/>
    </vehicle>
    <vehicle id="cross2CarFlowLowAlt.7" type="car" depart="504.00">
        <route edges="-E25 E24"/>
    </vehicle>
    <vehicle id="cross3CarFlowLow.7" type="car" depart="504.00">
        <route edges="-E22 E23"/>
    </vehicle>
    <vehicle id="cross3CarFlowLowAlt.7" type="car" depart="504.00">
        <route edges="-E23 E22"/>
    </vehicle>
    <vehicle id="mainCarFlowLow.28" type="car" depart="504.00">
        <route edges="E10 E13 E14 E15"/>
    </vehicle>
    <vehicle id="mainCarFlowLowAlt.28" type="car" depart="504.00">
        <route edges="-E15 -E14 -E13 -E10"/>
    </vehicle>
    <vehicle id="mainCarFlowLow.29" type="car" depart="522.00">
        <route edges="E10 E13 E14 E15"/>
    </vehicle>
    <vehicle id="mainCarFlowLowAlt.29" type="car" depart="522.00">
        <route edges="-E15 -E14 -E13 -E10"/>
    </vehicle>
    <vehicle id="mainBusFlowLow.3" type="bus" depart="540.00">
        <route edges="E10 E13 E14 E15"/>
    </vehicle>
    <vehicle id="mainBusFlowLowAlt.3" type="bus" depart="540.00">
        <route edges="-E15 -E14 -E13 -E10"/>
    </vehicle>
    <vehicle id="mainCarFlowLow.30" type="car" depart="540.00">
        <route edges="E10 E13 E14 E15"/>
    </vehicle>
    <vehicle id="mainCarFlowLowAlt.30" type="car" depart="540.00">
        <route edges="-E15 -E14 -E13 -E10"/>
    </vehicle>
    <vehicle id="mainCarFlowLow.31" type="car" depart="558.00">
        <route edges="E10 E13 E14 E15"/>
    </vehicle>
    <vehicle id="mainCarFlowLowAlt.31" type="car" depart="558.00">
        <route edges="-E15 -E14 -E13 -E10"/>
    </vehicle>
    <vehicle id="cross1CarFlowLow.8" type="car" depart="576.00">
        <route edges="-E11 E12"/>
    </vehicle>
    <vehicle id="cross1CarFlowLowAlt.8" type="car" depart="576.00">
        <route edges="-E12 E11"/>
    </vehicle>
    <vehicle id="cross2CarFlowLow.8" type="car" depart="576.00">
        <route edges="-E24 E25"/>
    </vehicle>
    <vehicle id="cross2CarFlowLowAlt.8" type="car" depart="576.00">
        <route edges="-E25 E24"/>
    </vehicle>
    <vehicle id="cross3CarFlowLow.8" type="car" depart="576.00">
        <route edges="-E22 E23"/>
    </vehicle>
    <vehicle id="cross3CarFlowLowAlt.8" type="car" depart="576.00">
        <route edges="-E23 E22"/>
    </vehicle>
    <vehicle id="mainCarFlowLow.32" type="car" depart="576.00">
        <route edges="E10 E13 E14 E15"/>
    </vehicle>
    <vehicle id="mainCarFlowLowAlt.32" type="car" depart="576.00">
        <route edges="-E15 -E14 -E13 -E10"/>
    </vehicle>
    <vehicle id="mainCarFlowLow.33" type="car" depart="594.00">
        <route edges="E10 E13 E14 E15"/>
    </vehicle>
    <vehicle id="mainCarFlowLowAlt.33" type="car" depart="594.00">
        <route edges="-E15 -E14 -E13 -E10"/>
    </vehicle>
    <vehicle id="mainCarFlowLow.34" type="car" depart="612.00">
        <route edges="E10 E13 E14 E15"/>
    </vehicle>
    <vehicle id="mainCarFlowLowAlt.34" type="car" depart="612.00">
        <route edges="-E15 -E14 -E13 -E10"/>
    </vehicle>
    <vehicle id="mainCarFlowLow.35" type="car" depart="630.00">
        <route edges="E10 E13 E14 E15"/>
    </vehicle>
    <vehicle id="mainCarFlowLowAlt.35" type="car" depart="630.00">
        <route edges="-E15 -E14 -E13 -E10"/>
    </vehicle>
    <vehicle id="cross1CarFlowLow.9" type="car" depart="648.00">
        <route edges="-E11 E12"/>
    </vehicle>
    <vehicle id="cross1CarFlowLowAlt.9" type="car" depart="648.00">
        <route edges="-E12 E11"/>
    </vehicle>
    <vehicle id="cross2CarFlowLow.9" type="car" depart="648.00">
        <route edges="-E24 E25"/>
    </vehicle>
    <vehicle id="cross2CarFlowLowAlt.9" type="car" depart="648.00">
        <route edges="-E25 E24"/>
    </vehicle>
    <vehicle id="cross3CarFlowLow.9" type="car" depart="648.00">
        <route edges="-E22 E23"/>
    </vehicle>
    <vehicle id="cross3CarFlowLowAlt.9" type="car" depart="648.00">
        <route edges="-E23 E22"/>
    </vehicle>
    <vehicle id="mainCarFlowLow.36" type="car" depart="648.00">
        <route edges="E10 E13 E14 E15"/>
    </vehicle>
    <vehicle id="mainCarFlowLowAlt.36" type="car" depart="648.00">
        <route edges="-E15 -E14 -E13 -E10"/>
    </vehicle>
    <vehicle id="mainCarFlowLow.37" type="car" depart="666.00">
        <route edges="E10 E13 E14 E15"/>
    </vehicle>
    <vehicle id="mainCarFlowLowAlt.37" type="car" depart="666.00">
        <route edges="-E15 -E14 -E13 -E10"/>
    </vehicle>
    <vehicle id="mainCarFlowLow.38" type="car" depart="684.00">
        <route edges="E10 E13 E14 E15"/>
    </vehicle>
    <vehicle id="mainCarFlowLowAlt.38" type="car" depart="684.00">
        <route edges="-E15 -E14 -E13 -E10"/>
    </vehicle>
    <vehicle id="mainCarFlowLow.39" type="car" depart="702.00">
        <route edges="E10 E13 E14 E15"/>
    </vehicle>
    <vehicle id="mainCarFlowLowAlt.39" type="car" depart="702.00">
        <route edges="-E15 -E14 -E13 -E10"/>
    </vehicle>
    <vehicle id="cross1BusFlowLow.1" type="bus" depart="720.00">
        <route edges="-E11 E12"/>
    </vehicle>
    <vehicle id="cross1BusFlowLowAlt.1" type="bus" depart="720.00">
        <route edges="-E12 E11"/>
    </vehicle>
    <vehicle id="cross1CarFlowLow.10" type="car" depart="720.00">
        <route edges="-E11 E12"/>
    </vehicle>
    <vehicle id="cross1CarFlowLowAlt.10" type="car" depart="720.00">
        <route edges="-E12 E11"/>
    </vehicle>
    <vehicle id="cross2BusFlowLow.1" type="bus" depart="720.00">
        <route edges="-E24 E25"/>
    </vehicle>
    <vehicle id="cross2BusFlowLowAlt.1" type="bus" depart="720.00">
        <route edges="-E25 E24"/>
    </vehicle>
    <vehicle id="cross2CarFlowLow.10" type="car" depart="720.00">
        <route edges="-E24 E25"/>
    </vehicle>
    <vehicle id="cross2CarFlowLowAlt.10" type="car" depart="720.00">
        <route edges="-E25 E24"/>
    </vehicle>
    <vehicle id="cross3BusFlowLow.1" type="bus" depart="720.00">
        <route edges="-E22 E23"/>
    </vehicle>
    <vehicle id="cross3BusFlowLowAlt.1" type="bus" depart="720.00">
        <route edges="-E23 E22"/>
    </vehicle>
    <vehicle id="cross3CarFlowLow.10" type="car" depart="720.00">
        <route edges="-E22 E23"/>
    </vehicle>
    <vehicle id="cross3CarFlowLowAlt.10" type="car" depart="720.00">
        <route edges="-E23 E22"/>
    </vehicle>
    <vehicle id="leftTurn1CarFlowLow.2" type="car" depart="720.00">
        <route edges="E10 E11"/>
    </vehicle>
    <vehicle id="leftTurn1CarFlowLowAlt.2" type="car" depart="720.00">
        <route edges="-E11 -E10"/>
    </vehicle>
    <vehicle id="leftTurn2CarFlowLow.2" type="car" depart="720.00">
        <route edges="E10 E13 E24"/>
    </vehicle>
    <vehicle id="leftTurn2CarFlowLowAlt.2" type="car" depart="720.00">
        <route edges="-E24 -E13 -E10"/>
    </vehicle>
    <vehicle id="leftTurn3CarFlowLow.2" type="car" depart="720.00">