<?xml version="1.0" encoding="UTF-8"?>

<!-- generated on 2025-04-22 09:59:35 by Eclipse SUMO netedit Version 1.22.0
-->

<additional xmlns:xsi="http://www.w3.org/2001/XMLSchema-instance" xsi:noNamespaceSchemaLocation="http://sumo.dlr.de/xsd/additional_file.xsd">
    <!-- StoppingPlaces -->
    <busStop id="bs_0" lane="-E14_0" startPos="594.80" endPos="604.80"/>
    <busStop id="bs_1" lane="E14_0" startPos="1784.40" endPos="1794.40"/>
    <busStop id="bs_10" lane="-E12_0" startPos="100.00" endPos="110.00"/>
    <busStop id="bs_11" lane="E12_0" startPos="1286.40" endPos="1296.40"/>
    <busStop id="bs_12" lane="-E25_0" startPos="98.30" endPos="108.30"/>
    <busStop id="bs_13" lane="E25_0" startPos="688.10" endPos="698.10"/>
    <busStop id="bs_14" lane="E24_0" startPos="1187.45" endPos="1197.45"/>
    <busStop id="bs_15" lane="-E24_0" startPos="98.95" endPos="108.95"/>
    <busStop id="bs_2" lane="E15_0" startPos="89.60" endPos="99.60"/>
    <busStop id="bs_3" lane="-E15_0" startPos="1200.00" endPos="1210.00"/>
    <busStop id="bs_4" lane="-E15_0" startPos="100.00" endPos="110.00"/>
    <busStop id="bs_5" lane="E15_0" startPos="1189.60" endPos="1199.60"/>
    <busStop id="bs_6" lane="E15_0" startPos="89.60" endPos="99.60"/>
    <busStop id="bs_7" lane="-E11_0" startPos="1200.00" endPos="1210.00"/>
    <busStop id="bs_8" lane="E11_0" startPos="86.40" endPos="96.40"/>
    <busStop id="bs_9" lane="E12_0" startPos="86.40" endPos="96.40"/>
</additional>
