<?xml version="1.0" encoding="UTF-8"?>

<!-- generated on 2025-04-22 10:01:14 by Eclipse SUMO netedit Version 1.22.0
<neteditConfiguration xmlns:xsi="http://www.w3.org/2001/XMLSchema-instance" xsi:noNamespaceSchemaLocation="http://sumo.dlr.de/xsd/neteditConfiguration.xsd">

    <input>
        <sumocfg-file value="/Users/brandoncooper/Desktop/Intro to ML/BusLaneML/SUMO/SUMO_bus_lanes.sumocfg"/>
        <additional-files value="/Users/brandoncooper/Desktop/Intro to ML/BusLaneML/SUMO/SUMO_bus_lanes.add.xml"/>
        <route-files value=""/>
        <sumo-net-file value="/Users/brandoncooper/Desktop/Intro to ML/BusLaneML/SUMO/SUMO_bus_lanes.net.xml"/>
    </input>

    <output>
        <output-file value="/Users/brandoncooper/Desktop/Intro to ML/BusLaneML/SUMO/SUMO_bus_lanes.net.xml"/>
    </output>

    <processing>
        <geometry.min-radius.fix.railways value="false"/>
        <geometry.max-grade.fix value="false"/>
        <offset.disable-normalization value="true"/>
        <lefthand value="0"/>
    </processing>

    <junctions>
        <no-turnarounds value="true"/>
        <junctions.corner-detail value="5"/>
        <junctions.limit-turn-speed value="5.50"/>
        <rectangular-lane-cut value="0"/>
    </junctions>

    <pedestrian>
        <walkingareas value="0"/>
    </pedestrian>

</neteditConfiguration>
-->

<net version="1.20" junctionCornerDetail="5" limitTurnSpeed="5.50" xmlns:xsi="http://www.w3.org/2001/XMLSchema-instance" xsi:noNamespaceSchemaLocation="http://sumo.dlr.de/xsd/net_file.xsd">

    <location netOffset="0.00,0.00" convBoundary="-5600.00,-2300.00,4200.00,2000.00" origBoundary="-10000000000.00,-10000000000.00,10000000000.00,10000000000.00" projParameter="!"/>

    <edge id=":J15_0" function="internal">
        <lane id=":J15_0_0" index="0" allow="bus" speed="6.51" length="9.03" shape="-3404.80,-886.40 -3405.15,-888.85 -3406.20,-890.60 -3407.95,-891.65 -3410.40,-892.00"/>
    </edge>
    <edge id=":J15_1" function="internal">
        <lane id=":J15_1_0" index="0" allow="bus" speed="13.89" length="27.20" shape="-3404.80,-886.40 -3404.80,-913.60"/>
    </edge>
    <edge id=":J15_2" function="internal">
        <lane id=":J15_2_0" index="0" allow="bus" speed="10.60" length="11.50" shape="-3404.80,-886.40 -3403.49,-892.63 -3400.92,-897.07"/>
    </edge>
    <edge id=":J15_3" function="internal">
        <lane id=":J15_3_0" index="0" speed="8.00" length="4.07" shape="-3401.60,-886.40 -3402.15,-890.25 -3402.24,-890.40"/>
    </edge>
    <edge id=":J15_4" function="internal">
        <lane id=":J15_4_0" index="0" speed="13.89" length="27.20" shape="-3401.60,-886.40 -3401.60,-913.60"/>
    </edge>
    <edge id=":J15_5" function="internal">
        <lane id=":J15_5_0" index="0" speed="9.58" length="3.62" shape="-3401.60,-886.40 -3400.88,-889.95"/>
    </edge>
    <edge id=":J15_26" function="internal">
        <lane id=":J15_26_0" index="0" allow="bus" speed="10.60" length="14.20" shape="-3400.92,-897.07 -3400.05,-898.58 -3395.18,-903.04 -3389.60,-904.80"/>
    </edge>
    <edge id=":J15_27" function="internal">
        <lane id=":J15_27_0" index="0" speed="8.00" length="10.13" shape="-3402.24,-890.40 -3403.80,-893.00 -3406.55,-894.65 -3410.40,-895.20"/>
    </edge>
    <edge id=":J15_28" function="internal">
        <lane id=":J15_28_0" index="0" speed="9.58" length="17.19" shape="-3400.88,-889.95 -3400.57,-891.50 -3397.85,-896.42 -3394.01,-900.13 -3389.60,-901.60"/>
    </edge>
    <edge id=":J15_6" function="internal">
        <lane id=":J15_6_0" index="0" allow="bus" speed="6.51" length="9.03" shape="-3389.60,-892.00 -3392.05,-891.65 -3393.80,-890.60 -3394.85,-888.85 -3395.20,-886.40"/>
    </edge>
    <edge id=":J15_7" function="internal">
        <lane id=":J15_7_0" index="0" allow="bus" speed="13.89" length="20.80" shape="-3389.60,-892.00 -3410.40,-892.00"/>
    </edge>
    <edge id=":J15_8" function="internal">
        <lane id=":J15_8_0" index="0" allow="bus" speed="11.09" length="5.22" shape="-3389.60,-892.00 -3394.47,-893.87"/>
    </edge>
    <edge id=":J15_9" function="internal">
        <lane id=":J15_9_0" index="0" speed="8.00" length="4.07" shape="-3389.60,-895.20 -3393.45,-894.65 -3393.60,-894.56"/>
    </edge>
    <edge id=":J15_10" function="internal">
        <lane id=":J15_10_0" index="0" speed="13.89" length="20.80" shape="-3389.60,-895.20 -3410.40,-895.20"/>
        <lane id=":J15_10_1" index="1" speed="13.89" length="20.80" shape="-3389.60,-898.40 -3410.40,-898.40"/>
    </edge>
    <edge id=":J15_12" function="internal">
        <lane id=":J15_12_0" index="0" speed="9.58" length="2.36" shape="-3389.60,-898.40 -3391.84,-899.15"/>
    </edge>
    <edge id=":J15_29" function="internal">
        <lane id=":J15_29_0" index="0" allow="bus" speed="11.09" length="23.02" shape="-3394.47,-893.87 -3395.18,-894.14 -3400.05,-899.50 -3403.49,-906.51 -3404.80,-913.60"/>
    </edge>
    <edge id=":J15_30" function="internal">
        <lane id=":J15_30_0" index="0" speed="8.00" length="10.13" shape="-3393.60,-894.56 -3396.20,-893.00 -3397.85,-890.25 -3398.40,-886.40"/>
    </edge>
    <edge id=":J15_31" function="internal">
        <lane id=":J15_31_0" index="0" speed="9.58" length="18.45" shape="-3391.84,-899.15 -3394.01,-899.87 -3397.85,-903.58 -3400.57,-908.50 -3401.60,-913.60"/>
    </edge>
    <edge id=":J15_13" function="internal">
        <lane id=":J15_13_0" index="0" allow="bus" speed="6.51" length="9.03" shape="-3395.20,-913.60 -3394.85,-911.15 -3393.80,-909.40 -3392.05,-908.35 -3389.60,-908.00"/>
    </edge>
    <edge id=":J15_14" function="internal">
        <lane id=":J15_14_0" index="0" allow="bus" speed="13.89" length="27.20" shape="-3395.20,-913.60 -3395.20,-886.40"/>
    </edge>
    <edge id=":J15_15" function="internal">
        <lane id=":J15_15_0" index="0" allow="bus" speed="10.60" length="11.50" shape="-3395.20,-913.60 -3396.51,-907.37 -3399.08,-902.93"/>
    </edge>
    <edge id=":J15_16" function="internal">
        <lane id=":J15_16_0" index="0" speed="8.00" length="4.07" shape="-3398.40,-913.60 -3397.85,-909.75 -3397.76,-909.60"/>
    </edge>
    <edge id=":J15_17" function="internal">
        <lane id=":J15_17_0" index="0" speed="13.89" length="27.20" shape="-3398.40,-913.60 -3398.40,-886.40"/>
    </edge>
    <edge id=":J15_18" function="internal">
        <lane id=":J15_18_0" index="0" speed="9.58" length="3.62" shape="-3398.40,-913.60 -3399.12,-910.05"/>
    </edge>
    <edge id=":J15_32" function="internal">
        <lane id=":J15_32_0" index="0" allow="bus" speed="10.60" length="14.20" shape="-3399.08,-902.93 -3399.95,-901.42 -3404.82,-896.96 -3410.40,-895.20"/>
    </edge>
    <edge id=":J15_33" function="internal">
        <lane id=":J15_33_0" index="0" speed="8.00" length="10.13" shape="-3397.76,-909.60 -3396.20,-907.00 -3393.45,-905.35 -3389.60,-904.80"/>
    </edge>
    <edge id=":J15_34" function="internal">
        <lane id=":J15_34_0" index="0" speed="9.58" length="17.19" shape="-3399.12,-910.05 -3399.43,-908.50 -3402.15,-903.58 -3405.99,-899.87 -3410.40,-898.40"/>
    </edge>
    <edge id=":J15_19" function="internal">
        <lane id=":J15_19_0" index="0" allow="bus" speed="6.51" length="9.03" shape="-3410.40,-908.00 -3407.95,-908.35 -3406.20,-909.40 -3405.15,-911.15 -3404.80,-913.60"/>
    </edge>
    <edge id=":J15_20" function="internal">
        <lane id=":J15_20_0" index="0" allow="bus" speed="13.89" length="20.80" shape="-3410.40,-908.00 -3389.60,-908.00"/>
    </edge>
    <edge id=":J15_21" function="internal">
        <lane id=":J15_21_0" index="0" allow="bus" speed="11.09" length="5.22" shape="-3410.40,-908.00 -3405.53,-906.13"/>
    </edge>
    <edge id=":J15_22" function="internal">
        <lane id=":J15_22_0" index="0" speed="8.00" length="4.07" shape="-3410.40,-904.80 -3406.55,-905.35 -3406.40,-905.44"/>
    </edge>
    <edge id=":J15_23" function="internal">
        <lane id=":J15_23_0" index="0" speed="13.89" length="20.80" shape="-3410.40,-904.80 -3389.60,-904.80"/>
        <lane id=":J15_23_1" index="1" speed="13.89" length="20.80" shape="-3410.40,-901.60 -3389.60,-901.60"/>
    </edge>
    <edge id=":J15_25" function="internal">
        <lane id=":J15_25_0" index="0" speed="9.58" length="2.36" shape="-3410.40,-901.60 -3408.16,-900.85"/>
    </edge>
    <edge id=":J15_35" function="internal">
        <lane id=":J15_35_0" index="0" allow="bus" speed="11.09" length="23.02" shape="-3405.53,-906.13 -3404.82,-905.86 -3399.95,-900.50 -3396.51,-893.49 -3395.20,-886.40"/>
    </edge>
    <edge id=":J15_36" function="internal">
        <lane id=":J15_36_0" index="0" speed="8.00" length="10.13" shape="-3406.40,-905.44 -3403.80,-907.00 -3402.15,-909.75 -3401.60,-913.60"/>
    </edge>
    <edge id=":J15_37" function="internal">
        <lane id=":J15_37_0" index="0" speed="9.58" length="18.45" shape="-3408.16,-900.85 -3405.99,-900.13 -3402.15,-896.42 -3399.43,-891.50 -3398.40,-886.40"/>
    </edge>
    <edge id=":J18_0" function="internal">
        <lane id=":J18_0_0" index="0" allow="bus" speed="6.51" length="9.03" shape="-2404.80,-886.40 -2405.15,-888.85 -2406.20,-890.60 -2407.95,-891.65 -2410.40,-892.00"/>
    </edge>
    <edge id=":J18_1" function="internal">
        <lane id=":J18_1_0" index="0" allow="bus" speed="13.89" length="27.20" shape="-2404.80,-886.40 -2404.80,-913.60"/>
    </edge>
    <edge id=":J18_2" function="internal">
        <lane id=":J18_2_0" index="0" allow="bus" speed="10.60" length="11.50" shape="-2404.80,-886.40 -2403.49,-892.63 -2400.92,-897.07"/>
    </edge>
    <edge id=":J18_3" function="internal">
        <lane id=":J18_3_0" index="0" speed="8.00" length="4.07" shape="-2401.60,-886.40 -2402.15,-890.25 -2402.24,-890.40"/>
    </edge>
    <edge id=":J18_4" function="internal">
        <lane id=":J18_4_0" index="0" speed="13.89" length="27.20" shape="-2401.60,-886.40 -2401.60,-913.60"/>
    </edge>
    <edge id=":J18_5" function="internal">
        <lane id=":J18_5_0" index="0" speed="9.58" length="3.62" shape="-2401.60,-886.40 -2400.88,-889.95"/>
    </edge>
    <edge id=":J18_26" function="internal">
        <lane id=":J18_26_0" index="0" allow="bus" speed="10.60" length="14.20" shape="-2400.92,-897.07 -2400.05,-898.58 -2395.18,-903.04 -2389.60,-904.80"/>
    </edge>
    <edge id=":J18_27" function="internal">
        <lane id=":J18_27_0" index="0" speed="8.00" length="10.13" shape="-2402.24,-890.40 -2403.80,-893.00 -2406.55,-894.65 -2410.40,-895.20"/>
    </edge>
    <edge id=":J18_28" function="internal">
        <lane id=":J18_28_0" index="0" speed="9.58" length="17.19" shape="-2400.88,-889.95 -2400.57,-891.50 -2397.85,-896.42 -2394.01,-900.13 -2389.60,-901.60"/>
    </edge>
    <edge id=":J18_6" function="internal">
        <lane id=":J18_6_0" index="0" allow="bus" speed="6.51" length="9.03" shape="-2389.60,-892.00 -2392.05,-891.65 -2393.80,-890.60 -2394.85,-888.85 -2395.20,-886.40"/>
    </edge>
    <edge id=":J18_7" function="internal">
        <lane id=":J18_7_0" index="0" allow="bus" speed="13.89" length="20.80" shape="-2389.60,-892.00 -2410.40,-892.00"/>
    </edge>
    <edge id=":J18_8" function="internal">
        <lane id=":J18_8_0" index="0" allow="bus" speed="11.09" length="5.22" shape="-2389.60,-892.00 -2394.47,-893.87"/>
    </edge>
    <edge id=":J18_9" function="internal">
        <lane id=":J18_9_0" index="0" speed="8.00" length="4.07" shape="-2389.60,-895.20 -2393.45,-894.65 -2393.60,-894.56"/>
    </edge>
    <edge id=":J18_10" function="internal">
        <lane id=":J18_10_0" index="0" speed="13.89" length="20.80" shape="-2389.60,-895.20 -2410.40,-895.20"/>
        <lane id=":J18_10_1" index="1" speed="13.89" length="20.80" shape="-2389.60,-898.40 -2410.40,-898.40"/>
    </edge>
    <edge id=":J18_12" function="internal">
        <lane id=":J18_12_0" index="0" speed="9.58" length="2.36" shape="-2389.60,-898.40 -2391.84,-899.15"/>
    </edge>
    <edge id=":J18_29" function="internal">
        <lane id=":J18_29_0" index="0" allow="bus" speed="11.09" length="23.02" shape="-2394.47,-893.87 -2395.18,-894.14 -2400.05,-899.50 -2403.49,-906.51 -2404.80,-913.60"/>
    </edge>
    <edge id=":J18_30" function="internal">
        <lane id=":J18_30_0" index="0" speed="8.00" length="10.13" shape="-2393.60,-894.56 -2396.20,-893.00 -2397.85,-890.25 -2398.40,-886.40"/>
    </edge>
    <edge id=":J18_31" function="internal">
        <lane id=":J18_31_0" index="0" speed="9.58" length="18.45" shape="-2391.84,-899.15 -2394.01,-899.87 -2397.85,-903.58 -2400.57,-908.50 -2401.60,-913.60"/>
    </edge>
    <edge id=":J18_13" function="internal">
        <lane id=":J18_13_0" index="0" allow="bus" speed="6.51" length="9.03" shape="-2395.20,-913.60 -2394.85,-911.15 -2393.80,-909.40 -2392.05,-908.35 -2389.60,-908.00"/>
    </edge>
    <edge id=":J18_14" function="internal">
        <lane id=":J18_14_0" index="0" allow="bus" speed="13.89" length="27.20" shape="-2395.20,-913.60 -2395.20,-886.40"/>
    </edge>
    <edge id=":J18_15" function="internal">
        <lane id=":J18_15_0" index="0" allow="bus" speed="10.60" length="11.50" shape="-2395.20,-913.60 -2396.51,-907.37 -2399.08,-902.93"/>
    </edge>
    <edge id=":J18_16" function="internal">
        <lane id=":J18_16_0" index="0" speed="8.00" length="4.07" shape="-2398.40,-913.60 -2397.85,-909.75 -2397.76,-909.60"/>
    </edge>
    <edge id=":J18_17" function="internal">
        <lane id=":J18_17_0" index="0" speed="13.89" length="27.20" shape="-2398.40,-913.60 -2398.40,-886.40"/>
    </edge>
    <edge id=":J18_18" function="internal">
        <lane id=":J18_18_0" index="0" speed="9.58" length="3.62" shape="-2398.40,-913.60 -2399.12,-910.05"/>
    </edge>
    <edge id=":J18_32" function="internal">
        <lane id=":J18_32_0" index="0" allow="bus" speed="10.60" length="14.20" shape="-2399.08,-902.93 -2399.95,-901.42 -2404.82,-896.96 -2410.40,-895.20"/>
    </edge>
    <edge id=":J18_33" function="internal">
        <lane id=":J18_33_0" index="0" speed="8.00" length="10.13" shape="-2397.76,-909.60 -2396.20,-907.00 -2393.45,-905.35 -2389.60,-904.80"/>
    </edge>
    <edge id=":J18_34" function="internal">
        <lane id=":J18_34_0" index="0" speed="9.58" length="17.19" shape="-2399.12,-910.05 -2399.43,-908.50 -2402.15,-903.58 -2405.99,-899.87 -2410.40,-898.40"/>
    </edge>
    <edge id=":J18_19" function="internal">
        <lane id=":J18_19_0" index="0" allow="bus" speed="6.51" length="9.03" shape="-2410.40,-908.00 -2407.95,-908.35 -2406.20,-909.40 -2405.15,-911.15 -2404.80,-913.60"/>
    </edge>
    <edge id=":J18_20" function="internal">
        <lane id=":J18_20_0" index="0" allow="bus" speed="13.89" length="20.80" shape="-2410.40,-908.00 -2389.60,-908.00"/>
    </edge>
    <edge id=":J18_21" function="internal">
        <lane id=":J18_21_0" index="0" allow="bus" speed="11.09" length="5.22" shape="-2410.40,-908.00 -2405.53,-906.13"/>
    </edge>
    <edge id=":J18_22" function="internal">
        <lane id=":J18_22_0" index="0" speed="8.00" length="4.07" shape="-2410.40,-904.80 -2406.55,-905.35 -2406.40,-905.44"/>
    </edge>
    <edge id=":J18_23" function="internal">
        <lane id=":J18_23_0" index="0" speed="13.89" length="20.80" shape="-2410.40,-904.80 -2389.60,-904.80"/>
        <lane id=":J18_23_1" index="1" speed="13.89" length="20.80" shape="-2410.40,-901.60 -2389.60,-901.60"/>
    </edge>
    <edge id=":J18_25" function="internal">
        <lane id=":J18_25_0" index="0" speed="9.58" length="2.36" shape="-2410.40,-901.60 -2408.16,-900.85"/>
    </edge>
    <edge id=":J18_35" function="internal">
        <lane id=":J18_35_0" index="0" allow="bus" speed="11.09" length="23.02" shape="-2405.53,-906.13 -2404.82,-905.86 -2399.95,-900.50 -2396.51,-893.49 -2395.20,-886.40"/>
    </edge>
    <edge id=":J18_36" function="internal">
        <lane id=":J18_36_0" index="0" speed="8.00" length="10.13" shape="-2406.40,-905.44 -2403.80,-907.00 -2402.15,-909.75 -2401.60,-913.60"/>
    </edge>
    <edge id=":J18_37" function="internal">
        <lane id=":J18_37_0" index="0" speed="9.58" length="18.45" shape="-2408.16,-900.85 -2405.99,-900.13 -2402.15,-896.42 -2399.43,-891.50 -2398.40,-886.40"/>
    </edge>
    <edge id=":J19_0" function="internal">
        <lane id=":J19_0_0" index="0" allow="bus" speed="6.51" length="9.03" shape="-4.80,-886.40 -5.15,-888.85 -6.20,-890.60 -7.95,-891.65 -10.40,-892.00"/>
    </edge>
    <edge id=":J19_1" function="internal">
        <lane id=":J19_1_0" index="0" allow="bus" speed="13.89" length="27.20" shape="-4.80,-886.40 -4.80,-913.60"/>
    </edge>
    <edge id=":J19_2" function="internal">
        <lane id=":J19_2_0" index="0" allow="bus" speed="10.60" length="11.50" shape="-4.80,-886.40 -3.49,-892.63 -0.92,-897.07"/>
    </edge>
    <edge id=":J19_3" function="internal">
        <lane id=":J19_3_0" index="0" speed="8.00" length="4.07" shape="-1.60,-886.40 -2.15,-890.25 -2.24,-890.40"/>
    </edge>
    <edge id=":J19_4" function="internal">
        <lane id=":J19_4_0" index="0" speed="13.89" length="27.20" shape="-1.60,-886.40 -1.60,-913.60"/>
    </edge>
    <edge id=":J19_5" function="internal">
        <lane id=":J19_5_0" index="0" speed="9.58" length="3.62" shape="-1.60,-886.40 -0.88,-889.95"/>
    </edge>
    <edge id=":J19_26" function="internal">
        <lane id=":J19_26_0" index="0" allow="bus" speed="10.60" length="14.20" shape="-0.92,-897.07 -0.05,-898.58 4.82,-903.04 10.40,-904.80"/>
    </edge>
    <edge id=":J19_27" function="internal">
        <lane id=":J19_27_0" index="0" speed="8.00" length="10.13" shape="-2.24,-890.40 -3.80,-893.00 -6.55,-894.65 -10.40,-895.20"/>
    </edge>
    <edge id=":J19_28" function="internal">
        <lane id=":J19_28_0" index="0" speed="9.58" length="17.19" shape="-0.88,-889.95 -0.57,-891.50 2.15,-896.42 5.99,-900.13 10.40,-901.60"/>
    </edge>
    <edge id=":J19_6" function="internal">
        <lane id=":J19_6_0" index="0" allow="bus" speed="6.51" length="9.03" shape="10.40,-892.00 7.95,-891.65 6.20,-890.60 5.15,-888.85 4.80,-886.40"/>
    </edge>
    <edge id=":J19_7" function="internal">
        <lane id=":J19_7_0" index="0" allow="bus" speed="13.89" length="20.80" shape="10.40,-892.00 -10.40,-892.00"/>
    </edge>
    <edge id=":J19_8" function="internal">
        <lane id=":J19_8_0" index="0" allow="bus" speed="11.09" length="5.22" shape="10.40,-892.00 5.53,-893.87"/>
    </edge>
    <edge id=":J19_9" function="internal">
        <lane id=":J19_9_0" index="0" speed="8.00" length="4.07" shape="10.40,-895.20 6.55,-894.65 6.40,-894.56"/>
    </edge>
    <edge id=":J19_10" function="internal">
        <lane id=":J19_10_0" index="0" speed="13.89" length="20.80" shape="10.40,-895.20 -10.40,-895.20"/>
        <lane id=":J19_10_1" index="1" speed="13.89" length="20.80" shape="10.40,-898.40 -10.40,-898.40"/>
    </edge>
    <edge id=":J19_12" function="internal">
        <lane id=":J19_12_0" index="0" speed="9.58" length="2.36" shape="10.40,-898.40 8.16,-899.15"/>
    </edge>
    <edge id=":J19_29" function="internal">
        <lane id=":J19_29_0" index="0" allow="bus" speed="11.09" length="23.02" shape="5.53,-893.87 4.82,-894.14 -0.05,-899.50 -3.49,-906.51 -4.80,-913.60"/>
    </edge>
    <edge id=":J19_30" function="internal">
        <lane id=":J19_30_0" index="0" speed="8.00" length="10.13" shape="6.40,-894.56 3.80,-893.00 2.15,-890.25 1.60,-886.40"/>
    </edge>
    <edge id=":J19_31" function="internal">
        <lane id=":J19_31_0" index="0" speed="9.58" length="18.45" shape="8.16,-899.15 5.99,-899.87 2.15,-903.58 -0.57,-908.50 -1.60,-913.60"/>
    </edge>
    <edge id=":J19_13" function="internal">
        <lane id=":J19_13_0" index="0" allow="bus" speed="6.51" length="9.03" shape="4.80,-913.60 5.15,-911.15 6.20,-909.40 7.95,-908.35 10.40,-908.00"/>
    </edge>
    <edge id=":J19_14" function="internal">
        <lane id=":J19_14_0" index="0" allow="bus" speed="13.89" length="27.20" shape="4.80,-913.60 4.80,-886.40"/>
    </edge>
    <edge id=":J19_15" function="internal">
        <lane id=":J19_15_0" index="0" allow="bus" speed="10.60" length="11.50" shape="4.80,-913.60 3.49,-907.37 0.92,-902.93"/>
    </edge>
    <edge id=":J19_16" function="internal">
        <lane id=":J19_16_0" index="0" speed="8.00" length="4.07" shape="1.60,-913.60 2.15,-909.75 2.24,-909.60"/>
    </edge>
    <edge id=":J19_17" function="internal">
        <lane id=":J19_17_0" index="0" speed="13.89" length="27.20" shape="1.60,-913.60 1.60,-886.40"/>
    </edge>
    <edge id=":J19_18" function="internal">
        <lane id=":J19_18_0" index="0" speed="9.58" length="3.62" shape="1.60,-913.60 0.88,-910.05"/>
    </edge>
    <edge id=":J19_32" function="internal">
        <lane id=":J19_32_0" index="0" allow="bus" speed="10.60" length="14.20" shape="0.92,-902.93 0.05,-901.42 -4.82,-896.96 -10.40,-895.20"/>
    </edge>
    <edge id=":J19_33" function="internal">
        <lane id=":J19_33_0" index="0" speed="8.00" length="10.13" shape="2.24,-909.60 3.80,-907.00 6.55,-905.35 10.40,-904.80"/>
    </edge>
    <edge id=":J19_34" function="internal">
        <lane id=":J19_34_0" index="0" speed="9.58" length="17.19" shape="0.88,-910.05 0.57,-908.50 -2.15,-903.58 -5.99,-899.87 -10.40,-898.40"/>
    </edge>
    <edge id=":J19_19" function="internal">
        <lane id=":J19_19_0" index="0" allow="bus" speed="6.51" length="9.03" shape="-10.40,-908.00 -7.95,-908.35 -6.20,-909.40 -5.15,-911.15 -4.80,-913.60"/>
    </edge>
    <edge id=":J19_20" function="internal">
        <lane id=":J19_20_0" index="0" allow="bus" speed="13.89" length="20.80" shape="-10.40,-908.00 10.40,-908.00"/>
    </edge>
    <edge id=":J19_21" function="internal">
        <lane id=":J19_21_0" index="0" allow="bus" speed="11.09" length="5.22" shape="-10.40,-908.00 -5.53,-906.13"/>
    </edge>
    <edge id=":J19_22" function="internal">
        <lane id=":J19_22_0" index="0" speed="8.00" length="4.07" shape="-10.40,-904.80 -6.55,-905.35 -6.40,-905.44"/>
    </edge>
    <edge id=":J19_23" function="internal">
        <lane id=":J19_23_0" index="0" speed="13.89" length="20.80" shape="-10.40,-904.80 10.40,-904.80"/>
        <lane id=":J19_23_1" index="1" speed="13.89" length="20.80" shape="-10.40,-901.60 10.40,-901.60"/>
    </edge>
    <edge id=":J19_25" function="internal">
        <lane id=":J19_25_0" index="0" speed="9.58" length="2.36" shape="-10.40,-901.60 -8.16,-900.85"/>
    </edge>
    <edge id=":J19_35" function="internal">
        <lane id=":J19_35_0" index="0" allow="bus" speed="11.09" length="23.02" shape="-5.53,-906.13 -4.82,-905.86 0.05,-900.50 3.49,-893.49 4.80,-886.40"/>
    </edge>
    <edge id=":J19_36" function="internal">
        <lane id=":J19_36_0" index="0" speed="8.00" length="10.13" shape="-6.40,-905.44 -3.80,-907.00 -2.15,-909.75 -1.60,-913.60"/>
    </edge>
    <edge id=":J19_37" function="internal">
        <lane id=":J19_37_0" index="0" speed="9.58" length="18.45" shape="-8.16,-900.85 -5.99,-900.13 -2.15,-896.42 0.57,-891.50 1.60,-886.40"/>
    </edge>

    <edge id="-E10" from="J15" to="J14" priority="-1">
        <lane id="-E10_0" index="0" allow="bus" speed="13.89" length="1589.60" shape="-3410.40,-892.00 -5000.00,-892.00"/>
        <lane id="-E10_1" index="1" speed="13.89" length="1589.60" shape="-3410.40,-895.20 -5000.00,-895.20"/>
        <lane id="-E10_2" index="2" speed="13.89" length="1589.60" shape="-3410.40,-898.40 -5000.00,-898.40"/>
    </edge>
    <edge id="-E11" from="J16" to="J15" priority="-1">
        <lane id="-E11_0" index="0" allow="bus" speed="13.89" length="1286.40" shape="-3404.80,400.00 -3404.80,-886.40"/>
        <lane id="-E11_1" index="1" speed="13.89" length="1286.40" shape="-3401.60,400.00 -3401.60,-886.40"/>
    </edge>
    <edge id="-E12" from="J17" to="J15" priority="-1">
        <lane id="-E12_0" index="0" allow="bus" speed="13.89" length="1386.40" shape="-3395.20,-2300.00 -3395.20,-913.60"/>
        <lane id="-E12_1" index="1" speed="13.89" length="1386.40" shape="-3398.40,-2300.00 -3398.40,-913.60"/>
    </edge>
    <edge id="-E13" from="J18" to="J15" priority="-1">
        <lane id="-E13_0" index="0" allow="bus" speed="13.89" length="979.20" shape="-2410.40,-892.00 -3389.60,-892.00"/>
        <lane id="-E13_1" index="1" speed="13.89" length="979.20" shape="-2410.40,-895.20 -3389.60,-895.20"/>
        <lane id="-E13_2" index="2" speed="13.89" length="979.20" shape="-2410.40,-898.40 -3389.60,-898.40"/>
    </edge>
    <edge id="-E14" from="J19" to="J18" priority="-1">
        <lane id="-E14_0" index="0" allow="bus" speed="13.89" length="2379.20" shape="-10.40,-892.00 -2389.60,-892.00"/>
        <lane id="-E14_1" index="1" speed="13.89" length="2379.20" shape="-10.40,-895.20 -2389.60,-895.20"/>
        <lane id="-E14_2" index="2" speed="13.89" length="2379.20" shape="-10.40,-898.40 -2389.60,-898.40"/>
    </edge>
    <edge id="-E15" from="J20" to="J19" priority="-1">
        <lane id="-E15_0" index="0" allow="bus" speed="13.89" length="1289.60" shape="1300.00,-892.00 10.40,-892.00"/>
        <lane id="-E15_1" index="1" speed="13.89" length="1289.60" shape="1300.00,-895.20 10.40,-895.20"/>
        <lane id="-E15_2" index="2" speed="13.89" length="1289.60" shape="1300.00,-898.40 10.40,-898.40"/>
    </edge>
    <edge id="-E22" from="J27" to="J19" priority="-1">
        <lane id="-E22_0" index="0" allow="bus" speed="13.89" length="1386.40" shape="4.80,-2300.00 4.80,-913.60"/>
        <lane id="-E22_1" index="1" speed="13.89" length="1386.40" shape="1.60,-2300.00 1.60,-913.60"/>
    </edge>
    <edge id="-E23" from="J28" to="J19" priority="-1">
        <lane id="-E23_0" index="0" allow="bus" speed="13.89" length="1286.40" shape="-4.80,400.00 -4.80,-886.40"/>
        <lane id="-E23_1" index="1" speed="13.89" length="1286.40" shape="-1.60,400.00 -1.60,-886.40"/>
    </edge>
    <edge id="-E24" from="J30" to="J18" priority="-1">
        <lane id="-E24_0" index="0" allow="bus" speed="13.89" length="1286.40" shape="-2404.80,400.00 -2404.80,-886.40"/>
        <lane id="-E24_1" index="1" speed="13.89" length="1286.40" shape="-2401.60,400.00 -2401.60,-886.40"/>
    </edge>
    <edge id="-E25" from="J31" to="J18" priority="-1">
        <lane id="-E25_0" index="0" allow="bus" speed="13.89" length="786.40" shape="-2395.20,-1700.00 -2395.20,-913.60"/>
        <lane id="-E25_1" index="1" speed="13.89" length="786.40" shape="-2398.40,-1700.00 -2398.40,-913.60"/>
    </edge>
    <edge id="E10" from="J14" to="J15" priority="-1">
        <lane id="E10_0" index="0" allow="bus" speed="13.89" length="1589.60" shape="-5000.00,-908.00 -3410.40,-908.00"/>
        <lane id="E10_1" index="1" speed="13.89" length="1589.60" shape="-5000.00,-904.80 -3410.40,-904.80"/>
        <lane id="E10_2" index="2" speed="13.89" length="1589.60" shape="-5000.00,-901.60 -3410.40,-901.60"/>
    </edge>
    <edge id="E11" from="J15" to="J16" priority="-1">
        <lane id="E11_0" index="0" allow="bus" speed="13.89" length="1286.40" shape="-3395.20,-886.40 -3395.20,400.00"/>
        <lane id="E11_1" index="1" speed="13.89" length="1286.40" shape="-3398.40,-886.40 -3398.40,400.00"/>
    </edge>
    <edge id="E12" from="J15" to="J17" priority="-1">
        <lane id="E12_0" index="0" allow="bus" speed="13.89" length="1386.40" shape="-3404.80,-913.60 -3404.80,-2300.00"/>
        <lane id="E12_1" index="1" speed="13.89" length="1386.40" shape="-3401.60,-913.60 -3401.60,-2300.00"/>
    </edge>
    <edge id="E13" from="J15" to="J18" priority="-1">
        <lane id="E13_0" index="0" allow="bus" speed="13.89" length="979.20" shape="-3389.60,-908.00 -2410.40,-908.00"/>
        <lane id="E13_1" index="1" speed="13.89" length="979.20" shape="-3389.60,-904.80 -2410.40,-904.80"/>
        <lane id="E13_2" index="2" speed="13.89" length="979.20" shape="-3389.60,-901.60 -2410.40,-901.60"/>
    </edge>
    <edge id="E14" from="J18" to="J19" priority="-1">
        <lane id="E14_0" index="0" allow="bus" speed="13.89" length="2379.20" shape="-2389.60,-908.00 -10.40,-908.00"/>
        <lane id="E14_1" index="1" speed="13.89" length="2379.20" shape="-2389.60,-904.80 -10.40,-904.80"/>
        <lane id="E14_2" index="2" speed="13.89" length="2379.20" shape="-2389.60,-901.60 -10.40,-901.60"/>
    </edge>
    <edge id="E15" from="J19" to="J20" priority="-1">
        <lane id="E15_0" index="0" allow="bus" speed="13.89" length="1289.60" shape="10.40,-908.00 1300.00,-908.00"/>
        <lane id="E15_1" index="1" speed="13.89" length="1289.60" shape="10.40,-904.80 1300.00,-904.80"/>
        <lane id="E15_2" index="2" speed="13.89" length="1289.60" shape="10.40,-901.60 1300.00,-901.60"/>
    </edge>
    <edge id="E22" from="J19" to="J27" priority="-1">
        <lane id="E22_0" index="0" allow="bus" speed="13.89" length="1386.40" shape="-4.80,-913.60 -4.80,-2300.00"/>
        <lane id="E22_1" index="1" speed="13.89" length="1386.40" shape="-1.60,-913.60 -1.60,-2300.00"/>
    </edge>
    <edge id="E23" from="J19" to="J28" priority="-1">
        <lane id="E23_0" index="0" allow="bus" speed="13.89" length="1286.40" shape="4.80,-886.40 4.80,400.00"/>
        <lane id="E23_1" index="1" speed="13.89" length="1286.40" shape="1.60,-886.40 1.60,400.00"/>
    </edge>
    <edge id="E24" from="J18" to="J30" priority="-1">
        <lane id="E24_0" index="0" allow="bus" speed="13.89" length="1286.40" shape="-2395.20,-886.40 -2395.20,400.00"/>
        <lane id="E24_1" index="1" speed="13.89" length="1286.40" shape="-2398.40,-886.40 -2398.40,400.00"/>
    </edge>
    <edge id="E25" from="J18" to="J31" priority="-1">
        <lane id="E25_0" index="0" allow="bus" speed="13.89" length="786.40" shape="-2404.80,-913.60 -2404.80,-1700.00"/>
        <lane id="E25_1" index="1" speed="13.89" length="786.40" shape="-2401.60,-913.60 -2401.60,-1700.00"/>
    </edge>

    <tlLogic id="J15" type="static" programID="0" offset="0">
        <phase duration="42" state="rrrrrrGGggGGgrrrrrrGGggGGg"/>
        <phase duration="3"  state="rrrrrryyyyyyyrrrrrryyyyyyy"/>