<?xml version="1.0" encoding="UTF-8"?>

<!-- generated on 2025-04-22 10:10:04 by Eclipse SUMO sumo Version 1.22.0
-->

<sumoConfiguration xmlns:xsi="http://www.w3.org/2001/XMLSchema-instance" xsi:noNamespaceSchemaLocation="http://sumo.dlr.de/xsd/sumoConfiguration.xsd">

    <input>
        <net-file value="SUMO_bus_lanes.net.xml"/>
        <route-files value="low_demand.rou.xml"/>
        <additional-files value="SUMO_bus_lanes.add.xml"/>
    </input>

</sumoConfiguration>
