<?xml version="1.0" encoding="UTF-8"?>

<!-- generated on 2025-04-22 09:19:06 by Eclipse SUMO netedit Version 1.22.0
<neteditConfiguration xmlns:xsi="http://www.w3.org/2001/XMLSchema-instance" xsi:noNamespaceSchemaLocation="http://sumo.dlr.de/xsd/neteditConfiguration.xsd">

    <input>
        <sumo-net-file value="/Users/brandoncooper/Desktop/Intro to ML/BusLaneML/SUMO/SUMO_bus_lanes.net.xml"/>
    </input>

    <output>
        <output-file value="/Users/brandoncooper/Desktop/Intro to ML/BusLaneML/SUMO/SUMO_bus_lanes.net.xml"/>
    </output>

    <processing>
        <offset.disable-normalization value="true"/>
    </processing>

    <junctions>
        <no-turnarounds value="true"/>
    </junctions>

    <netedit>
        <new-network value="false"/>
    </netedit>

</neteditConfiguration>
-->

<net version="1.20" junctionCornerDetail="5" limitTurnSpeed="5.50" xmlns:xsi="http://www.w3.org/2001/XMLSchema-instance" xsi:noNamespaceSchemaLocation="http://sumo.dlr.de/xsd/net_file.xsd">

    <location netOffset="0.00,0.00" convBoundary="-5600.00,-2000.00,4200.00,2000.00" origBoundary="10000000000.00,10000000000.00,-10000000000.00,-10000000000.00" projParameter="!"/>

    <edge id=":J0_0" function="internal">
        <lane id=":J0_0_0" index="0" speed="6.51" length="9.03" shape="-1892.80,211.20 -1895.25,211.55 -1897.00,212.60 -1898.05,214.35 -1898.40,216.80"/>
    </edge>
    <edge id=":J0_1" function="internal">
        <lane id=":J0_1_0" index="0" speed="13.89" length="17.87" shape="-1892.80,211.20 -1898.00,209.70 -1901.37,206.40 -1904.06,203.10 -1907.20,201.60"/>
    </edge>
    <edge id=":J0_2" function="internal">
        <lane id=":J0_2_0" index="0" speed="9.94" length="22.48" shape="-1892.80,201.60 -1896.65,200.45 -1899.40,197.00 -1901.05,191.25 -1901.60,183.20"/>
    </edge>
    <edge id=":J5_0" function="internal">
        <lane id=":J5_0_0" index="0" speed="3.90" length="2.58" shape="-1898.40,1996.80 -1898.30,1997.50 -1898.00,1998.00 -1897.50,1998.30 -1896.80,1998.40"/>
    </edge>
    <edge id=":J6_0" function="internal">
        <lane id=":J6_0_0" index="0" speed="6.51" length="9.03" shape="286.40,1998.40 288.85,1998.05 290.60,1997.00 291.65,1995.25 292.00,1992.80"/>
        <lane id=":J6_0_1" index="1" allow="bus" speed="7.33" length="11.73" shape="286.40,1998.40 290.25,1998.05 293.00,1997.00 294.65,1995.25 295.20,1992.80"/>
        <lane id=":J6_0_2" index="2" speed="8.10" length="14.57" shape="286.40,1998.40 291.65,1998.05 295.40,1997.00 297.65,1995.25 298.40,1992.80"/>
    </edge>
    <edge id=":J7_0" function="internal">
        <lane id=":J7_0_0" index="0" speed="13.89" length="0.10" shape="292.00,200.00 292.00,200.00"/>
        <lane id=":J7_0_1" index="1" allow="bus" speed="13.89" length="0.10" shape="295.20,200.00 295.20,200.00"/>
        <lane id=":J7_0_2" index="2" speed="13.89" length="0.10" shape="298.40,200.00 298.40,200.00"/>
    </edge>
    <edge id=":J7_3" function="internal">
        <lane id=":J7_3_0" index="0" speed="13.89" length="0.10" shape="308.00,200.00 308.00,200.00"/>
        <lane id=":J7_3_1" index="1" allow="bus" speed="13.89" length="0.10" shape="304.80,200.00 304.80,200.00"/>
        <lane id=":J7_3_2" index="2" speed="13.89" length="0.10" shape="301.60,200.00 301.60,200.00"/>
    </edge>

    <edge id="-E0" from="J1" to="J0" priority="-1">
        <lane id="-E0_0" index="0" speed="13.89" length="6092.80" shape="4200.00,211.20 -1892.80,211.20"/>
        <lane id="-E0_1" index="1" allow="bus" speed="13.89" length="6092.80" shape="4200.00,208.00 -1892.80,208.00"/>
        <lane id="-E0_2" index="2" speed="13.89" length="6092.80" shape="4200.00,204.80 -1892.80,204.80"/>
        <lane id="-E0_3" index="3" speed="13.89" length="6092.80" shape="4200.00,201.60 -1892.80,201.60"/>
    </edge>
    <edge id="-E5" from="J7" to="J6" priority="-1">
        <lane id="-E5_0" index="0" speed="13.89" length="1792.80" shape="308.00,200.00 308.00,1992.80"/>
        <lane id="-E5_1" index="1" allow="bus" speed="13.89" length="1792.80" shape="304.80,200.00 304.80,1992.80"/>
        <lane id="-E5_2" index="2" speed="13.89" length="1792.80" shape="301.60,200.00 301.60,1992.80"/>
    </edge>
    <edge id="-E6" from="J8" to="J7" priority="-1">
        <lane id="-E6_0" index="0" speed="13.89" length="1500.00" shape="308.00,-1300.00 308.00,200.00"/>
        <lane id="-E6_1" index="1" allow="bus" speed="13.89" length="1500.00" shape="304.80,-1300.00 304.80,200.00"/>
        <lane id="-E6_2" index="2" speed="13.89" length="1500.00" shape="301.60,-1300.00 301.60,200.00"/>
    </edge>
    <edge id="E0" from="J0" to="J1" priority="-1">
        <lane id="E0_0" index="0" allow="bus" speed="13.89" length="6092.80" shape="-1892.80,188.80 4200.00,188.80"/>
        <lane id="E0_1" index="1" speed="13.89" length="6092.80" shape="-1892.80,192.00 4200.00,192.00"/>
        <lane id="E0_2" index="2" speed="13.89" length="6092.80" shape="-1892.80,195.20 4200.00,195.20"/>
        <lane id="E0_3" index="3" speed="13.89" length="6092.80" shape="-1892.80,198.40 4200.00,198.40"/>
    </edge>
    <edge id="E1" from="J0" to="J2" priority="-1">
        <lane id="E1_0" index="0" speed="13.89" length="3692.80" shape="-1907.20,201.60 -5600.00,201.60"/>
    </edge>
    <edge id="E2" from="J0" to="J3" priority="-1">
        <lane id="E2_0" index="0" speed="13.89" length="2183.20" shape="-1901.60,183.20 -1901.60,-2000.00"/>
    </edge>
    <edge id="E3" from="J0" to="J5" priority="-1">
        <lane id="E3_0" index="0" speed="13.89" length="1780.00" shape="-1898.40,216.80 -1898.40,1996.80"/>
    </edge>
    <edge id="E4" from="J5" to="J6" priority="-1">
        <lane id="E4_0" index="0" speed="13.89" length="2183.20" shape="-1896.80,1998.40 286.40,1998.40"/>
    </edge>
    <edge id="E5" from="J6" to="J7" priority="-1">
        <lane id="E5_0" index="0" speed="13.89" length="1792.80" shape="292.00,1992.80 292.00,200.00"/>
        <lane id="E5_1" index="1" allow="bus" speed="13.89" length="1792.80" shape="295.20,1992.80 295.20,200.00"/>
        <lane id="E5_2" index="2" speed="13.89" length="1792.80" shape="298.40,1992.80 298.40,200.00"/>
    </edge>
    <edge id="E6" from="J7" to="J8" priority="-1">
        <lane id="E6_0" index="0" speed="13.89" length="1500.00" shape="292.00,200.00 292.00,-1300.00"/>
        <lane id="E6_1" index="1" allow="bus" speed="13.89" length="1500.00" shape="295.20,200.00 295.20,-1300.00"/>
        <lane id="E6_2" index="2" speed="13.89" length="1500.00" shape="298.40,200.00 298.40,-1300.00"/>
    </edge>

    <junction id="J0" type="priority" x="-1900.00" y="200.00" incLanes="-E0_0 -E0_1 -E0_2 -E0_3" intLanes=":J0_0_0 :J0_1_0 :J0_2_0" shape="-1900.00,216.80 -1896.80,216.80 -1896.36,214.58 -1895.80,213.80 -1895.02,213.24 -1894.02,212.91 -1892.80,212.80 -1892.80,187.20 -1895.00,187.09 -1896.80,186.76 -1898.20,186.20 -1899.20,185.42 -1899.80,184.42 -1900.00,183.20 -1903.20,183.20 -1903.31,188.33 -1903.64,192.53 -1904.20,195.80 -1904.98,198.13 -1905.98,199.53 -1907.20,200.00 -1907.20,203.20 -1905.00,203.58 -1903.20,204.71 -1901.80,206.60 -1900.80,209.24 -1900.20,212.64">
        <request index="0" response="000" foes="000" cont="0"/>
        <request index="1" response="000" foes="000" cont="0"/>
        <request index="2" response="000" foes="000" cont="0"/>
    </junction>
    <junction id="J1" type="dead_end" x="4200.00" y="200.00" incLanes="E0_0 E0_1 E0_2 E0_3" intLanes="" shape="4200.00,200.00 4200.00,187.20 4200.00,200.00"/>
    <junction id="J2" type="dead_end" x="-5600.00" y="200.00" incLanes="E1_0" intLanes="" shape="-5600.00,203.20 -5600.00,200.00"/>
    <junction id="J3" type="dead_end" x="-1900.00" y="-2000.00" incLanes="E2_0" intLanes="" shape="-1903.20,-2000.00 -1900.00,-2000.00"/>
    <junction id="J5" type="priority" x="-1900.00" y="2000.00" incLanes="E3_0" intLanes=":J5_0_0" shape="-1896.80,2000.00 -1896.80,1996.80 -1900.00,1996.80 -1899.64,1998.58 -1899.20,1999.20 -1898.58,1999.64 -1897.78,1999.91">
        <request index="0" response="0" foes="0" cont="0"/>
    </junction>
    <junction id="J6" type="priority" x="300.00" y="2000.00" incLanes="-E5_0 -E5_1 -E5_2 E4_0" intLanes=":J6_0_0 :J6_0_1 :J6_0_2" shape="309.60,1992.80 290.40,1992.80 289.96,1995.02 289.40,1995.80 288.62,1996.36 287.62,1996.69 286.40,1996.80 286.40,2000.00 293.49,1999.80 299.29,1999.20 303.80,1998.20 307.02,1996.80 308.96,1995.00">
        <request index="0" response="000" foes="000" cont="0"/>
        <request index="1" response="000" foes="000" cont="0"/>
        <request index="2" response="000" foes="000" cont="0"/>
    </junction>
    <junction id="J7" type="priority" x="300.00" y="200.00" incLanes="E5_0 E5_1 E5_2 -E6_0 -E6_1 -E6_2" intLanes=":J7_0_0 :J7_0_1 :J7_0_2 :J7_3_0 :J7_3_1 :J7_3_2" shape="290.40,200.00 309.60,200.00 290.40,200.00">
        <request index="0" response="000000" foes="000000" cont="0"/>
        <request index="1" response="000000" foes="000000" cont="0"/>
        <request index="2" response="000000" foes="000000" cont="0"/>
        <request index="3" response="000000" foes="000000" cont="0"/>
        <request index="4" response="000000" foes="000000" cont="0"/>
        <request index="5" response="000000" foes="000000" cont="0"/>
    </junction>
    <junction id="J8" type="dead_end" x="300.00" y="-1300.00" incLanes="E6_0 E6_1 E6_2" intLanes="" shape="300.00,-1300.00 290.40,-1300.00 300.00,-1300.00"/>

    <connection from="-E0" to="E3" fromLane="0" toLane="0" via=":J0_0_0" dir="r" state="M"/>
    <connection from="-E0" to="E1" fromLane="0" toLane="0" via=":J0_1_0" dir="s" state="M"/>
    <connection from="-E0" to="E2" fromLane="3" toLane="0" via=":J0_2_0" dir="l" state="M"/>
    <connection from="-E6" to="-E5" fromLane="0" toLane="0" via=":J7_3_0" dir="s" state="M"/>
    <connection from="-E6" to="-E5" fromLane="1" toLane="1" via=":J7_3_1" dir="s" state="M"/>
    <connection from="-E6" to="-E5" fromLane="2" toLane="2" via=":J7_3_2" dir="s" state="M"/>
    <connection from="E3" to="E4" fromLane="0" toLane="0" via=":J5_0_0" dir="r" state="M"/>
    <connection from="E4" to="E5" fromLane="0" toLane="0" via=":J6_0_0" dir="r" state="M"/>
    <connection from="E4" to="E5" fromLane="0" toLane="1" via=":J6_0_1" dir="r" state="M"/>
    <connection from="E4" to="E5" fromLane="0" toLane="2" via=":J6_0_2" dir="r" state="M"/>
    <connection from="E5" to="E6" fromLane="0" toLane="0" via=":J7_0_0" dir="s" state="M"/>
    <connection from="E5" to="E6" fromLane="1" toLane="1" via=":J7_0_1" dir="s" state="M"/>
    <connection from="E5" to="E6" fromLane="2" toLane="2" via=":J7_0_2" dir="s" state="M"/>

    <connection from=":J0_0" to="E3" fromLane="0" toLane="0" dir="r" state="M"/>
    <connection from=":J0_1" to="E1" fromLane="0" toLane="0" dir="s" state="M"/>
    <connection from=":J0_2" to="E2" fromLane="0" toLane="0" dir="l" state="M"/>
    <connection from=":J5_0" to="E4" fromLane="0" toLane="0" dir="r" state="M"/>
    <connection from=":J6_0" to="E5" fromLane="0" toLane="0" dir="r" state="M"/>
    <connection from=":J6_0" to="E5" fromLane="1" toLane="1" dir="r" state="M"/>
    <connection from=":J6_0" to="E5" fromLane="2" toLane="2" dir="r" state="M"/>
    <connection from=":J7_0" to="E6" fromLane="0" toLane="0" dir="s" state="M"/>
    <connection from=":J7_0" to="E6" fromLane="1" toLane="1" dir="s" state="M"/>
    <connection from=":J7_0" to="E6" fromLane="2" toLane="2" dir="s" state="M"/>
    <connection from=":J7_3" to="-E5" fromLane="0" toLane="0" dir="s" state="M"/>
    <connection from=":J7_3" to="-E5" fromLane="1" toLane="1" dir="s" state="M"/>
    <connection from=":J7_3" to="-E5" fromLane="2" toLane="2" dir="s" state="M"/>

</net>
